
     RDKit          3D

 15 15  0  0  0  0  0  0  0  0999 V2000
  136.1810  135.8550  174.5210 C   0  0  0  0  0  0  0  0  0  0  0  0
  136.0620  134.7540  173.5100 C   0  0  0  0  0  0  0  0  0  0  0  0
  136.6260  135.1970  172.2130 C   0  0  0  0  0  0  0  0  0  0  0  0
  134.7050  134.2750  173.3320 N   0  0  0  0  0  4  0  0  0  0  0  0
  134.1630  133.7550  174.5800 C   0  0  0  0  0  0  0  0  0  0  0  0
  133.1390  132.6510  174.4100 C   0  0  2  0  0  0  0  0  0  0  0  0
  132.4540  132.9940  173.2170 O   0  0  0  0  0  0  0  0  0  0  0  0
  132.2050  132.5840  175.5690 C   0  0  0  0  0  0  0  0  0  0  0  0
  132.1290  133.6050  176.5230 C   0  0  0  0  0  0  0  0  0  0  0  0
  131.0430  133.6940  177.3650 C   0  0  0  0  0  0  0  0  0  0  0  0
  130.0340  132.7510  177.3490 C   0  0  0  0  0  0  0  0  0  0  0  0
  128.9870  133.1270  177.9810 O   0  0  0  0  0  1  0  0  0  0  0  0
  130.2000  131.5990  176.5210 C   0  0  0  0  0  0  0  0  0  0  0  0
  129.3680  130.6430  176.3920 O   0  0  0  0  0  1  0  0  0  0  0  0
  131.2860  131.5440  175.6580 C   0  0  0  0  0  0  0  0  0  0  0  0
  1  2  1  0
  2  3  1  0
  2  4  1  0
  4  5  1  0
  5  6  1  0
  6  7  1  6
  6  8  1  0
  8  9  2  0
  9 10  1  0
 10 11  2  0
 11 12  1  0
 11 13  1  0
 13 14  1  0
 13 15  2  0
 15  8  1  0
M  CHG  3   4   1  12  -1  14  -1
M  END
$$$$
